Version 4
SHEET 1 880 680
WIRE 384 128 272 128
WIRE 432 128 384 128
WIRE 128 144 32 144
WIRE 176 144 128 144
WIRE 336 160 272 160
WIRE 352 160 336 160
WIRE 432 160 432 128
WIRE 32 176 32 144
WIRE 352 192 352 160
WIRE 32 288 32 256
WIRE 208 288 32 288
WIRE 352 288 352 272
WIRE 352 288 208 288
WIRE 432 288 432 240
WIRE 432 288 352 288
WIRE 208 320 208 288
FLAG 208 320 0
FLAG 128 144 1
FLAG 384 128 3
FLAG 336 160 2
SYMBOL voltage 32 160 R0
WINDOW 3 -239 67 Left 2
WINDOW 123 0 0 Left 0
WINDOW 39 0 0 Left 0
SYMATTR Value SINE(0 0.5 1e3)
SYMATTR InstName V1
SYMBOL res 336 176 R0
WINDOW 0 -25 60 Left 2
WINDOW 3 -52 92 Left 2
SYMATTR InstName R2
SYMATTR Value 10e6
SYMBOL res 416 144 R0
SYMATTR InstName R1
SYMATTR Value 10
SYMBOL AutoGenerated\\A14_mod_dta_2 224 144 R0
SYMATTR InstName U1
TEXT 0 344 Left 2 !.tran 10ms
